data/sourcebus_11000.trafo_75617582_75617582/Loads.dss
New Load.75622042_nmi_elem_75622042 bus1=3105182.2 kV=0.23094010767585033 Vminpu=0.7 Vmaxpu=1.3 model=1 kW=0.0 kvar=0.0 Phases=1
New Load.NMI_elem_75618968 bus1=3105182.2 kV=0.23094010767585033 Vminpu=0.7 Vmaxpu=1.3 model=1 kW=1.4618281694839852 kvar=0.2968368701724761 Phases=1
New Load.NMI_elem_75619148 bus1=3108602.2 kV=0.23094010767585033 Vminpu=0.7 Vmaxpu=1.3 model=1 kW=3.2991469043782264 kvar=0.6699203516378638 Phases=1
